Version 4
SHEET 1 1172 680
WIRE -80 0 -160 0
WIRE 144 0 0 0
WIRE -160 48 -160 0
WIRE 144 80 144 0
WIRE 640 96 192 96
WIRE -160 144 -160 128
WIRE 640 224 640 96
WIRE 640 224 512 224
WIRE 448 240 352 240
WIRE 144 256 144 160
WIRE 352 256 352 240
WIRE 352 256 144 256
WIRE 144 272 144 256
FLAG -160 144 0
FLAG 144 336 0
FLAG 560 -48 Vcomp
FLAG 448 208 Vcomp
FLAG 560 32 0
FLAG 480 256 0
FLAG 352 -48 Vcc
FLAG 496 192 Vcc
FLAG 352 32 0
FLAG 1072 160 0
FLAG 192 144 0
SYMBOL voltage -160 32 R0
WINDOW 123 0 0 Left 0
WINDOW 39 0 0 Left 0
SYMATTR InstName V1
SYMATTR Value PULSE(0 10 1 0 0)
SYMBOL res 16 -16 R90
WINDOW 0 0 56 VBottom 2
WINDOW 3 32 56 VTop 2
SYMATTR InstName R1
SYMATTR Value 100k
SYMBOL cap 128 272 R0
SYMATTR InstName C1
SYMATTR Value 1m
SYMBOL voltage 560 -64 R0
WINDOW 123 0 0 Left 0
WINDOW 39 0 0 Left 0
SYMATTR InstName V2
SYMATTR Value 3
SYMBOL voltage 352 -64 R0
WINDOW 123 0 0 Left 0
WINDOW 39 0 0 Left 0
SYMATTR InstName V3
SYMATTR Value 5
SYMBOL cap 1056 96 R0
SYMATTR InstName C2
SYMATTR Value 10µ
SYMATTR SpiceLine IC=5
SYMBOL sw 144 176 R180
SYMATTR InstName S1
SYMBOL Opamps\\RH101A 480 160 R0
SYMATTR InstName U2
TEXT -194 520 Left 2 !.tran 100
TEXT 760 -40 Left 2 !.model SW SW()
